LIG(A-307)
     RDKit          3D

 43 45  0  0  0  0  0  0  0  0999 V2000
    8.4300    1.1920   21.1210 O   0  0  0  0  0  0  0  0  0  0  0  0
    8.2300    0.0890   21.6150 C   0  0  0  0  0  0  0  0  0  0  0  0
    7.3450   -0.9360   20.9010 C   0  0  0  0  0  0  0  0  0  0  0  0
    6.6240   -0.3450   19.7910 N   0  0  0  0  0  0  0  0  0  0  0  0
    5.4630    0.3690   19.7950 C   0  0  0  0  0  0  0  0  0  0  0  0
    4.6040    0.7960   20.7960 C   0  0  0  0  0  0  0  0  0  0  0  0
    3.5110    1.5690   20.4240 C   0  0  0  0  0  0  0  0  0  0  0  0
    3.2870    1.8920   19.0880 C   0  0  0  0  0  0  0  0  0  0  0  0
    4.1380    1.4380   18.0900 C   0  0  0  0  0  0  0  0  0  0  0  0
    5.2430    0.6720   18.4550 C   0  0  0  0  0  0  0  0  0  0  0  0
    6.2640    0.1270   17.7080 N   0  0  0  0  0  0  0  0  0  0  0  0
    7.0870   -0.4750   18.5220 N   0  0  0  0  0  0  0  0  0  0  0  0
    8.7420   -0.2500   22.8350 N   0  0  0  0  0  0  0  0  0  0  0  0
    8.2910   -1.4410   23.5880 C   0  0  0  0  0  0  0  0  0  0  0  0
    9.4640   -2.2450   24.1420 C   0  0  0  0  0  0  0  0  0  0  0  0
    7.2820   -1.0620   24.6610 C   0  0  0  0  0  0  0  0  0  0  0  0
    9.6240    0.6820   23.5510 C   0  0  0  0  0  0  0  0  0  0  0  0
   11.0710    0.6940   23.1060 C   0  0  0  0  0  0  0  0  0  0  0  0
   11.5920   -0.3220   22.3120 C   0  0  0  0  0  0  0  0  0  0  0  0
   12.9140   -0.2860   21.8930 C   0  0  0  0  0  0  0  0  0  0  0  0
   13.7300    0.7590   22.2630 C   0  0  0  0  0  0  0  0  0  0  0  0
   13.2350    1.7600   23.0680 C   0  0  0  0  0  0  0  0  0  0  0  0
   11.9150    1.7270   23.4880 C   0  0  0  0  0  0  0  0  0  0  0  0
    7.9790   -1.7500   20.5200 H   0  0  0  0  0  0  0  0  0  0  0  0
    6.6200   -1.3430   21.6200 H   0  0  0  0  0  0  0  0  0  0  0  0
    4.7780    0.5370   21.8300 H   0  0  0  0  0  0  0  0  0  0  0  0
    2.8270    1.9240   21.1800 H   0  0  0  0  0  0  0  0  0  0  0  0
    2.4370    2.5050   18.8250 H   0  0  0  0  0  0  0  0  0  0  0  0
    3.9490    1.6750   17.0530 H   0  0  0  0  0  0  0  0  0  0  0  0
    7.7670   -2.0970   22.8760 H   0  0  0  0  0  0  0  0  0  0  0  0
    9.0820   -3.1170   24.6920 H   0  0  0  0  0  0  0  0  0  0  0  0
   10.1010   -2.5830   23.3120 H   0  0  0  0  0  0  0  0  0  0  0  0
   10.0530   -1.6120   24.8220 H   0  0  0  0  0  0  0  0  0  0  0  0
    6.9650   -1.9650   25.2030 H   0  0  0  0  0  0  0  0  0  0  0  0
    7.7430   -0.3550   25.3650 H   0  0  0  0  0  0  0  0  0  0  0  0
    6.4060   -0.5910   24.1900 H   0  0  0  0  0  0  0  0  0  0  0  0
    9.2220    1.6970   23.4180 H   0  0  0  0  0  0  0  0  0  0  0  0
    9.6010    0.4150   24.6180 H   0  0  0  0  0  0  0  0  0  0  0  0
   10.9610   -1.1470   22.0180 H   0  0  0  0  0  0  0  0  0  0  0  0
   13.3040   -1.0810   21.2740 H   0  0  0  0  0  0  0  0  0  0  0  0
   14.7540    0.7930   21.9240 H   0  0  0  0  0  0  0  0  0  0  0  0
   13.8770    2.5720   23.3740 H   0  0  0  0  0  0  0  0  0  0  0  0
   11.5370    2.5170   24.1210 H   0  0  0  0  0  0  0  0  0  0  0  0
  1  2  2  0
  2  3  1  0
  2 13  1  0
  3  4  1  0
  3 24  1  0
  3 25  1  0
  4  5  1  0
  4 12  1  0
  5  6  2  0
  5 10  1  0
  6  7  1  0
  6 26  1  0
  7  8  2  0
  7 27  1  0
  8  9  1  0
  8 28  1  0
  9 10  2  0
  9 29  1  0
 10 11  1  0
 11 12  2  0
 13 14  1  0
 13 17  1  0
 14 15  1  0
 14 16  1  0
 14 30  1  0
 15 31  1  0
 15 32  1  0
 15 33  1  0
 16 34  1  0
 16 35  1  0
 16 36  1  0
 17 18  1  0
 17 37  1  0
 17 38  1  0
 18 19  2  0
 18 23  1  0
 19 20  1  0
 19 39  1  0
 20 21  2  0
 20 40  1  0
 21 22  1  0
 21 41  1  0
 22 23  2  0
 22 42  1  0
 23 43  1  0
M  END
$$$$
